Circuit: * E:\Work\PoF_2015\Setups\211123_TWT_jet_grid\Electronics\mosfet_board\ltspice_Sanwo_MOSFET_board__5V.asc

.OP point found by inspection.

Date: Tue Jan 11 14:23:41 2022
Total elapsed time: 0.022 seconds.

tnom = 27
temp = 27
method = modified trap
totiter = 134
traniter = 134
tranpoints = 66
accept = 66
rejected = 0
matrix size = 4
fillins = 0
solver = Normal
Matrix Compiler1:       6 opcodes  0.1/[0.0]/0.0
Matrix Compiler2: 248 bytes object code size  0.0/0.0/[0.0]

