Circuit: * E:\Work\PoF_2015\Setups\211123_TWT_jet_grid\Electronics\mosfet_board\LTSpice_sim\ltspice_Sanwo_MOSFET_board__24V.asc

.OP point found by inspection.

Date: Tue Jan 11 14:53:25 2022
Total elapsed time: 0.022 seconds.

tnom = 27
temp = 27
method = modified trap
totiter = 137
traniter = 137
tranpoints = 67
accept = 66
rejected = 1
matrix size = 4
fillins = 0
solver = Normal
Matrix Compiler1: 100 bytes object code size  0.0/0.0/[0.0]
Matrix Compiler2: 248 bytes object code size  0.1/0.0/[0.0]

